Distrib/IEEETestCases/ShortCircuitCases/123Bus/ieee123_EXP_POWERS.CSV
Element, Terminal, P(kW), Q(kvar),  P_Normal, Q_Normal, P_Emergency, Q_Emergency
"Transformer.reg1a"     ,   1,      3610.2,      1334.0,         0.0,         0.0,         0.0,         0.0
"Transformer.reg1a"     ,   2,     -3610.2,     -1334.0
"Line.l115"             ,   1,      3610.2,      1334.0,      1309.0,       483.7,       158.5,        58.6
"Line.l115"             ,   2,     -3591.1,     -1293.6
"Line.l1"               ,   1,        20.0,        10.0,         0.0,         0.0,         0.0,         0.0
"Line.l1"               ,   2,       -20.0,       -10.0
"Line.l2"               ,   1,       105.6,        53.6,         0.0,         0.0,         0.0,         0.0
"Line.l2"               ,   2,      -105.4,       -53.4
"Line.l3"               ,   1,      3425.5,      1210.0,      1177.7,       416.0,        53.8,        19.0
"Line.l3"               ,   2,     -3412.5,     -1182.5
"Line.l4"               ,   1,        42.7,        21.4,         0.0,         0.0,         0.0,         0.0
"Line.l4"               ,   2,       -42.7,       -21.4
"Line.l5"               ,   1,        62.7,        32.1,         0.0,         0.0,         0.0,         0.0
"Line.l5"               ,   2,       -62.6,       -32.0
"Line.l6"               ,   1,        42.6,        21.3,         0.0,         0.0,         0.0,         0.0
"Line.l6"               ,   2,       -42.6,       -21.3
"Line.l7"               ,   1,      3392.5,      1172.5,      1132.8,       391.5,         3.0,         1.0
"Line.l7"               ,   2,     -3383.9,     -1154.5
"Line.l8"               ,   1,        20.0,        10.0,         0.0,         0.0,         0.0,         0.0
"Line.l8"               ,   2,       -20.0,       -10.0
"Line.l9"               ,   1,       100.8,        50.7,         0.0,         0.0,         0.0,         0.0
"Line.l9"               ,   2,      -100.7,       -50.5
"Line.l10"              ,   1,      3263.1,      1093.8,       909.8,       305.0,         0.0,         0.0
"Line.l10"              ,   2,     -3251.4,     -1069.3
"Line.l11"              ,   1,        60.7,        30.5,         0.0,         0.0,         0.0,         0.0
"Line.l11"              ,   2,       -60.6,       -30.4
"Line.l12"              ,   1,       101.7,        50.9,         0.0,         0.0,         0.0,         0.0
"Line.l12"              ,   2,      -101.7,       -50.9
"Line.l13"              ,   1,      1130.6,       672.2,         0.0,         0.0,         0.0,         0.0
"Line.l13"              ,   2,     -1125.7,      -662.3
"Line.l14"              ,   1,        40.6,        20.3,         0.0,         0.0,         0.0,         0.0
"Line.l14"              ,   2,       -40.6,       -20.3
"Line.l15"              ,   1,        20.0,        10.2,         0.0,         0.0,         0.0,         0.0
"Line.l15"              ,   2,       -20.0,       -10.1
"Line.l16"              ,   1,        40.0,        20.0,         0.0,         0.0,         0.0,         0.0
"Line.l16"              ,   2,       -40.0,       -20.0
"Line.l17"              ,   1,        20.0,        10.0,         0.0,         0.0,         0.0,         0.0
"Line.l17"              ,   2,       -20.0,       -10.0
"Line.l18"              ,   1,        80.1,        40.0,         0.0,         0.0,         0.0,         0.0
"Line.l18"              ,   2,       -80.0,       -39.9
"Line.l19"              ,   1,       282.8,       141.9,         0.0,         0.0,         0.0,         0.0
"Line.l19"              ,   2,      -282.7,      -141.6
"Line.l20"              ,   1,        40.0,        19.9,         0.0,         0.0,         0.0,         0.0
"Line.l20"              ,   2,       -40.0,       -19.9
"Line.l21"              ,   1,        42.5,        21.3,         0.0,         0.0,         0.0,         0.0
"Line.l21"              ,   2,       -42.5,       -21.2
"Line.l22"              ,   1,       240.2,       120.4,         0.0,         0.0,         0.0,         0.0
"Line.l22"              ,   2,      -240.1,      -120.1
"Line.l23"              ,   1,        40.0,        20.0,         0.0,         0.0,         0.0,         0.0
"Line.l23"              ,   2,       -40.0,       -20.0
"Line.l24"              ,   1,       200.1,       100.1,         0.0,         0.0,         0.0,         0.0
"Line.l24"              ,   2,      -200.0,       -99.9
"Line.l25"              ,   1,        80.1,        40.0,         0.0,         0.0,         0.0,         0.0
"Line.l25"              ,   2,       -80.1,       -39.9
"Line.l26"              ,   1,       119.9,        59.9,         0.0,         0.0,         0.0,         0.0
"Line.l26"              ,   2,      -119.8,       -59.9
"Line.l27"              ,   1,        40.1,        19.9,         0.0,         0.0,         0.0,         0.0
"Line.l27"              ,   2,       -40.0,       -19.9
"Line.l28"              ,   1,        40.0,        20.0,         0.0,         0.0,         0.0,         0.0
"Line.l28"              ,   2,       -40.0,       -20.0
"Line.l29"              ,   1,        40.0,        19.9,         0.0,         0.0,         0.0,         0.0
"Line.l29"              ,   2,       -40.0,       -19.9
"Line.l30"              ,   1,        79.8,        39.9,         0.0,         0.0,         0.0,         0.0
"Line.l30"              ,   2,       -79.8,       -39.9
"Line.l31"              ,   1,        40.0,        20.0,         0.0,         0.0,         0.0,         0.0
"Line.l31"              ,   2,       -40.0,       -20.0
"Line.l32"              ,   1,         0.0,        -0.0,         0.0,         0.0,         0.0,         0.0
"Line.l32"              ,   2,        -0.0,         0.0
"Line.l33"              ,   1,        20.0,        10.0,         0.0,         0.0,         0.0,         0.0
"Line.l33"              ,   2,       -20.0,       -10.0
"Line.l34"              ,   1,        60.1,        30.1,         0.0,         0.0,         0.0,         0.0
"Line.l34"              ,   2,       -60.0,       -30.0
"Line.l35"              ,   1,        79.7,        40.5,         0.0,         0.0,         0.0,         0.0
"Line.l35"              ,   2,       -79.7,       -40.4
"Line.l36"              ,   1,       642.0,       417.8,         0.0,         0.0,         0.0,         0.0
"Line.l36"              ,   2,      -641.5,      -416.8
"Line.l37"              ,   1,        39.7,        19.8,         0.0,         0.0,         0.0,         0.0
"Line.l37"              ,   2,       -39.6,       -19.8
"Line.l38"              ,   1,        40.0,        20.6,         0.0,         0.0,         0.0,         0.0
"Line.l38"              ,   2,       -40.0,       -20.6
"Line.l39"              ,   1,        20.0,        10.0,         0.0,         0.0,         0.0,         0.0
"Line.l39"              ,   2,       -20.0,       -10.0
"Line.l40"              ,   1,        20.0,        10.0,         0.0,         0.0,         0.0,         0.0
"Line.l40"              ,   2,       -20.0,       -10.0
"Line.l41"              ,   1,       621.5,       406.8,         0.0,         0.0,         0.0,         0.0
"Line.l41"              ,   2,      -621.0,      -405.8
"Line.l42"              ,   1,        42.1,        21.1,         0.0,         0.0,         0.0,         0.0
"Line.l42"              ,   2,       -42.1,       -21.0
"Line.l43"              ,   1,       558.9,       374.8,         0.0,         0.0,         0.0,         0.0
"Line.l43"              ,   2,      -558.6,      -374.2
"Line.l44"              ,   1,        40.0,        19.9,         0.0,         0.0,         0.0,         0.0
"Line.l44"              ,   2,       -40.0,       -19.9
"Line.l45"              ,   1,       518.6,       354.3,         0.0,         0.0,         0.0,         0.0
"Line.l45"              ,   2,      -518.3,      -353.6
"Line.l46"              ,   1,        20.0,        10.0,         0.0,         0.0,         0.0,         0.0
"Line.l46"              ,   2,       -20.0,       -10.0
"Line.l47"              ,   1,       213.2,       152.3,         0.0,         0.0,         0.0,         0.0
"Line.l47"              ,   2,      -213.2,      -152.3
"Line.l48"              ,   1,       200.1,       125.1,         0.0,         0.0,         0.0,         0.0
"Line.l48"              ,   2,      -200.0,      -125.0
"Line.l49"              ,   1,        60.0,        30.0,         0.0,         0.0,         0.0,         0.0
"Line.l49"              ,   2,       -60.0,       -30.0
"Line.l50"              ,   1,        20.0,        10.0,         0.0,         0.0,         0.0,         0.0
"Line.l50"              ,   2,       -20.0,       -10.0
"Line.l51"              ,   1,         0.0,        -0.0,         0.0,         0.0,         0.0,         0.0
"Line.l51"              ,   2,        -0.0,        -0.0
"Line.l52"              ,   1,      1973.5,       314.4,         0.0,         0.0,         0.0,         0.0
"Line.l52"              ,   2,     -1970.9,      -308.9
"Line.l53"              ,   1,      1930.9,       288.9,         0.0,         0.0,         0.0,         0.0
"Line.l53"              ,   2,     -1929.3,      -285.6
"Line.l54"              ,   1,        40.0,        20.0,         0.0,         0.0,         0.0,         0.0
"Line.l54"              ,   2,       -40.0,       -20.0
"Line.l55"              ,   1,      1889.3,       265.6,         0.0,         0.0,         0.0,         0.0
"Line.l55"              ,   2,     -1885.1,      -257.0
"Line.l56"              ,   1,        20.0,        10.0,         0.0,         0.0,         0.0,         0.0
"Line.l56"              ,   2,       -20.0,       -10.0
"Line.l57"              ,   1,        40.0,        20.6,         0.0,         0.0,         0.0,         0.0
"Line.l57"              ,   2,       -40.0,       -20.6
"Line.l58"              ,   1,      1845.1,       236.4,         0.0,         0.0,         0.0,         0.0
"Line.l58"              ,   2,     -1836.4,      -218.6
"Line.l59"              ,   1,        20.0,        10.0,         0.0,         0.0,         0.0,         0.0
"Line.l59"              ,   2,       -20.0,       -10.0
"Line.l60"              ,   1,         0.0,        -0.0,         0.0,         0.0,         0.0,         0.0
"Line.l60"              ,   2,        -0.0,        -0.0
"Line.l61"              ,   1,       372.4,       212.1,         0.0,         0.0,         0.0,         0.0
"Line.l61"              ,   2,      -371.8,      -211.9
"Line.l62"              ,   1,       331.5,       191.8,         0.0,         0.0,         0.0,         0.0
"Line.l62"              ,   2,      -331.2,      -191.7
"Line.l63"              ,   1,       291.2,       171.7,         0.0,         0.0,         0.0,         0.0
"Line.l63"              ,   2,      -290.7,      -171.6
"Line.l64"              ,   1,       215.7,       135.1,         0.0,         0.0,         0.0,         0.0
"Line.l64"              ,   2,      -215.2,      -135.0
"Line.l65"              ,   1,        75.1,        34.9,         0.0,         0.0,         0.0,         0.0
"Line.l65"              ,   2,       -75.0,       -35.0
"Line.l66"              ,   1,       120.4,        60.4,         0.0,         0.0,         0.0,         0.0
"Line.l66"              ,   2,      -120.2,       -60.2
"Line.l67"              ,   1,       874.9,      -294.1,         0.0,         0.0,         0.0,         0.0
"Line.l67"              ,   2,      -874.1,       295.6
"Line.l68"              ,   1,       446.5,       225.3,         0.0,         0.0,         0.0,         0.0
"Line.l68"              ,   2,      -446.3,      -224.9
"Line.l69"              ,   1,       100.2,        50.2,         0.0,         0.0,         0.0,         0.0
"Line.l69"              ,   2,      -100.1,       -50.1
"Line.l70"              ,   1,        60.1,        30.1,         0.0,         0.0,         0.0,         0.0
"Line.l70"              ,   2,       -60.0,       -30.0
"Line.l71"              ,   1,        40.0,        20.0,         0.0,         0.0,         0.0,         0.0
"Line.l71"              ,   2,       -40.0,       -20.0
"Line.l72"              ,   1,       122.9,        61.6,         0.0,         0.0,         0.0,         0.0
"Line.l72"              ,   2,      -122.7,       -61.4
"Line.l73"              ,   1,       751.2,      -357.2,         0.0,         0.0,         0.0,         0.0
"Line.l73"              ,   2,      -750.8,       358.2
"Line.l74"              ,   1,        82.7,        41.4,         0.0,         0.0,         0.0,         0.0
"Line.l74"              ,   2,       -82.5,       -41.3
"Line.l75"              ,   1,        40.0,        20.0,         0.0,         0.0,         0.0,         0.0
"Line.l75"              ,   2,       -40.0,       -20.0
"Line.l76"              ,   1,       245.2,      -522.0,         0.0,         0.0,         0.0,         0.0
"Line.l76"              ,   2,      -244.8,       522.8
"Line.l77"              ,   1,       260.5,       -27.9,         0.0,         0.0,         0.0,         0.0
"Line.l77"              ,   2,      -260.3,        28.4
"Line.l78"              ,   1,       204.8,      -542.8,         0.0,         0.0,         0.0,         0.0
"Line.l78"              ,   2,      -204.7,       543.0
"Line.l79"              ,   1,        43.2,        21.6,         0.0,         0.0,         0.0,         0.0
"Line.l79"              ,   2,       -43.2,       -21.6
"Line.l80"              ,   1,       161.5,      -564.6,         0.0,         0.0,         0.0,         0.0
"Line.l80"              ,   2,      -161.0,       565.7
"Line.l81"              ,   1,       121.0,      -585.7,         0.0,         0.0,         0.0,         0.0
"Line.l81"              ,   2,      -120.8,       586.1
"Line.l82"              ,   1,        60.6,      -616.3,         0.0,         0.0,         0.0,         0.0
"Line.l82"              ,   2,       -60.3,       616.9
"Line.l83"              ,   1,        60.2,        30.2,         0.0,         0.0,         0.0,         0.0
"Line.l83"              ,   2,       -60.0,       -30.0
"Line.l84"              ,   1,        20.3,      -636.9,         0.0,         0.0,         0.0,         0.0
"Line.l84"              ,   2,       -20.0,       637.5
"Line.l85"              ,   1,        40.0,        20.0,         0.0,         0.0,         0.0,         0.0
"Line.l85"              ,   2,       -40.0,       -20.0
"Line.l86"              ,   1,       240.3,       -38.4,         0.0,         0.0,         0.0,         0.0
"Line.l86"              ,   2,      -240.2,        38.6
"Line.l87"              ,   1,        40.0,       -33.6,         0.0,         0.0,         0.0,         0.0
"Line.l87"              ,   2,       -40.0,        33.6
"Line.l88"              ,   1,       160.2,       -25.0,         0.0,         0.0,         0.0,         0.0
"Line.l88"              ,   2,      -160.1,        25.1
"Line.l89"              ,   1,        40.0,       -31.5,         0.0,         0.0,         0.0,         0.0
"Line.l89"              ,   2,       -40.0,        31.5
"Line.l90"              ,   1,       120.1,         6.3,         0.0,         0.0,         0.0,         0.0
"Line.l90"              ,   2,      -120.1,        -6.3
"Line.l91"              ,   1,        40.0,       -33.7,         0.0,         0.0,         0.0,         0.0
"Line.l91"              ,   2,       -40.0,        33.8
"Line.l92"              ,   1,        80.0,        40.1,         0.0,         0.0,         0.0,         0.0
"Line.l92"              ,   2,       -80.0,       -40.0
"Line.l93"              ,   1,        40.0,        20.0,         0.0,         0.0,         0.0,         0.0
"Line.l93"              ,   2,       -40.0,       -20.0
"Line.l94"              ,   1,        40.0,        20.0,         0.0,         0.0,         0.0,         0.0
"Line.l94"              ,   2,       -40.0,       -20.0
"Line.l95"              ,   1,        20.0,        10.0,         0.0,         0.0,         0.0,         0.0
"Line.l95"              ,   2,       -20.0,       -10.0
"Line.l96"              ,   1,       122.8,        61.4,         0.0,         0.0,         0.0,         0.0
"Line.l96"              ,   2,      -122.8,       -61.4
"Line.l97"              ,   1,        82.8,        41.4,         0.0,         0.0,         0.0,         0.0
"Line.l97"              ,   2,       -82.7,       -41.4
"Line.l98"              ,   1,        42.7,        21.4,         0.0,         0.0,         0.0,         0.0
"Line.l98"              ,   2,       -42.7,       -21.3
"Line.l99"              ,   1,         0.0,        -0.0,         0.0,         0.0,         0.0,         0.0
"Line.l99"              ,   2,         0.0,        -0.0
"Line.l100"             ,   1,       100.3,        50.3,         0.0,         0.0,         0.0,         0.0
"Line.l100"             ,   2,      -100.2,       -50.2
"Line.l101"             ,   1,       223.1,       112.9,         0.0,         0.0,         0.0,         0.0
"Line.l101"             ,   2,      -223.0,      -112.7
"Line.l102"             ,   1,        80.2,        40.2,         0.0,         0.0,         0.0,         0.0
"Line.l102"             ,   2,       -80.1,       -40.1
"Line.l103"             ,   1,        40.1,        20.1,         0.0,         0.0,         0.0,         0.0
"Line.l103"             ,   2,       -40.0,       -20.0
"Line.l104"             ,   1,        80.1,        40.1,         0.0,         0.0,         0.0,         0.0
"Line.l104"             ,   2,       -80.0,       -40.0
"Line.l105"             ,   1,       142.9,        72.6,         0.0,         0.0,         0.0,         0.0
"Line.l105"             ,   2,      -142.8,       -72.3
"Line.l106"             ,   1,        40.0,        20.0,         0.0,         0.0,         0.0,         0.0
"Line.l106"             ,   2,       -40.0,       -20.0
"Line.l107"             ,   1,       142.8,        72.3,         0.0,         0.0,         0.0,         0.0
"Line.l107"             ,   2,      -142.3,       -71.8
"Line.l108"             ,   1,         0.0,        -0.0,         0.0,         0.0,         0.0,         0.0
"Line.l108"             ,   2,        -0.0,         0.0
"Line.l109"             ,   1,       102.3,        51.8,         0.0,         0.0,         0.0,         0.0
"Line.l109"             ,   2,      -102.1,       -51.7
"Line.l110"             ,   1,        20.0,        10.0,         0.0,         0.0,         0.0,         0.0
"Line.l110"             ,   2,       -20.0,       -10.0
"Line.l111"             ,   1,        82.1,        41.7,         0.0,         0.0,         0.0,         0.0
"Line.l111"             ,   2,       -82.1,       -41.6
"Line.l112"             ,   1,        62.1,        31.1,         0.0,         0.0,         0.0,         0.0
"Line.l112"             ,   2,       -61.9,       -31.0
"Line.l113"             ,   1,        20.0,        10.0,         0.0,         0.0,         0.0,         0.0
"Line.l113"             ,   2,       -20.0,       -10.0
"Line.l114"             ,   1,       762.7,       480.4,         0.0,         0.0,         0.0,         0.0
"Line.l114"             ,   2,      -761.7,      -478.3
"Line.l116"             ,   1,      2019.1,       346.1,         0.0,         0.0,         0.0,         0.0
"Line.l116"             ,   2,     -2013.5,      -334.4
"Line.l117"             ,   1,      1444.1,        -3.6,         0.0,         0.0,         0.0,         0.0
"Line.l117"             ,   2,     -1441.7,         8.4
"Line.l118"             ,   1,       323.5,       163.5,         0.0,         0.0,         0.0,         0.0
"Line.l118"             ,   2,      -323.4,      -163.2
"Line.sw1"              ,   1,      3610.2,      1334.0,      1309.0,       483.7,       158.5,        58.6
"Line.sw1"              ,   2,     -3610.2,     -1334.0
"Line.sw2"              ,   1,      2019.1,       346.1,         0.0,         0.0,         0.0,         0.0
"Line.sw2"              ,   2,     -2019.1,      -346.1
"Line.sw3"              ,   1,       762.7,       480.4,         0.0,         0.0,         0.0,         0.0
"Line.sw3"              ,   2,      -762.7,      -480.4
"Line.sw4"              ,   1,      1444.1,        -3.5,         0.0,         0.0,         0.0,         0.0
"Line.sw4"              ,   2,     -1444.1,         3.5
"Line.sw5"              ,   1,       323.5,       163.5,         0.0,         0.0,         0.0,         0.0
"Line.sw5"              ,   2,      -323.5,      -163.5
"Line.sw6"              ,   1,         0.0,         0.0,         0.0,         0.0,         0.0,         0.0
"Line.sw6"              ,   2,        -0.0,        -0.0
"Line.sw7"              ,   1,         0.0,         0.0,         0.0,         0.0,         0.0,         0.0
"Line.sw7"              ,   2,         0.0,         0.0
"Line.sw8"              ,   1,         0.0,         0.0,         0.0,         0.0,         0.0,         0.0
"Line.sw8"              ,   2,         0.0,         0.0
"Transformer.xfm1"      ,   1,         0.0,         0.0,         0.0,         0.0,         0.0,         0.0
"Transformer.xfm1"      ,   2,         0.0,         0.0
"Capacitor.c83"         ,   1,         0.0,      -647.5,         0.0,         0.0,         0.0,         0.0
"Capacitor.c83"         ,   2,         0.0,         0.0
"Capacitor.c88a"        ,   1,         0.0,       -53.6,         0.0,         0.0,         0.0,         0.0
"Capacitor.c88a"        ,   2,         0.0,         0.0
"Capacitor.c90b"        ,   1,        -0.0,       -52.5,         0.0,         0.0,         0.0,         0.0
"Capacitor.c90b"        ,   2,         0.0,         0.0
"Capacitor.c92c"        ,   1,         0.0,       -53.8,         0.0,         0.0,         0.0,         0.0
"Capacitor.c92c"        ,   2,         0.0,         0.0
"Transformer.reg2a"     ,   1,        60.7,        30.5,         0.0,         0.0,         0.0,         0.0
"Transformer.reg2a"     ,   2,       -60.7,       -30.5
"Transformer.reg3a"     ,   1,        40.1,        19.9,         0.0,         0.0,         0.0,         0.0
"Transformer.reg3a"     ,   2,       -40.1,       -19.9
"Transformer.reg4a"     ,   1,       566.4,        26.3,         0.0,         0.0,         0.0,         0.0
"Transformer.reg4a"     ,   2,      -566.4,       -26.3
"Transformer.reg3c"     ,   1,        40.0,        20.0,         0.0,         0.0,         0.0,         0.0
"Transformer.reg3c"     ,   2,       -40.0,       -20.0
"Transformer.reg4b"     ,   1,       419.5,       -11.5,         0.0,         0.0,         0.0,         0.0
"Transformer.reg4b"     ,   2,      -419.5,        11.5
"Transformer.reg4c"     ,   1,       458.2,       -18.3,         0.0,         0.0,         0.0,         0.0
"Transformer.reg4c"     ,   2,      -458.2,        18.3
"Load.s1a"              ,   1,        40.0,        20.0
"Load.s2b"              ,   1,        20.0,        10.0
"Load.s4c"              ,   1,        42.7,        21.4
"Load.s5c"              ,   1,        20.0,        10.7
"Load.s6c"              ,   1,        42.6,        21.3
"Load.s7a"              ,   1,        20.0,        10.0
"Load.s9a"              ,   1,        40.0,        20.0
"Load.s10a"             ,   1,        20.0,        10.1
"Load.s11a"             ,   1,        40.6,        20.3
"Load.s12b"             ,   1,        20.0,        10.0
"Load.s16c"             ,   1,        40.0,        20.0
"Load.s17c"             ,   1,        20.0,        10.0
"Load.s19a"             ,   1,        40.0,        20.0
"Load.s20a"             ,   1,        40.0,        19.9
"Load.s22b"             ,   1,        42.5,        21.2
"Load.s24c"             ,   1,        40.0,        20.0
"Load.s28a"             ,   1,        40.0,        19.9
"Load.s29a"             ,   1,        39.8,        19.9
"Load.s30c"             ,   1,        40.0,        20.0
"Load.s31c"             ,   1,        20.0,        10.0
"Load.s32c"             ,   1,        20.0,        10.0
"Load.s33a"             ,   1,        40.0,        19.9
"Load.s34c"             ,   1,        41.6,        20.8
"Load.s35a"             ,   1,        40.0,        20.0
"Load.s37a"             ,   1,        39.6,        19.8
"Load.s38b"             ,   1,        20.0,        10.6
"Load.s39b"             ,   1,        20.0,        10.0
"Load.s41c"             ,   1,        20.0,        10.0
"Load.s42a"             ,   1,        20.0,        10.0
"Load.s43b"             ,   1,        42.1,        21.0
"Load.s45a"             ,   1,        20.0,         9.9
"Load.s46a"             ,   1,        20.0,        10.0
"Load.s47"              ,   1,       105.0,        76.2
"Load.s48"              ,   1,       213.2,       152.3
"Load.s49a"             ,   1,        35.0,        25.0
"Load.s49b"             ,   1,        70.0,        50.0
"Load.s49c"             ,   1,        35.0,        20.0
"Load.s50c"             ,   1,        40.0,        20.0
"Load.s51a"             ,   1,        20.0,        10.0
"Load.s52a"             ,   1,        40.0,        20.0
"Load.s53a"             ,   1,        40.0,        20.0
"Load.s55a"             ,   1,        20.0,        10.0
"Load.s56b"             ,   1,        20.0,        10.0
"Load.s58b"             ,   1,        20.0,        10.6
"Load.s59b"             ,   1,        20.0,        10.0
"Load.s60a"             ,   1,        20.0,        10.0
"Load.s62c"             ,   1,        40.3,        20.1
"Load.s63a"             ,   1,        40.0,        20.0
"Load.s64b"             ,   1,        75.0,        36.5
"Load.s65a"             ,   1,        34.6,        24.7
"Load.s65b"             ,   1,        35.7,        25.5
"Load.s65c"             ,   1,        69.7,        49.8
"Load.s66c"             ,   1,        75.0,        35.0
"Load.s68a"             ,   1,        20.0,        10.0
"Load.s69a"             ,   1,        40.0,        20.0
"Load.s70a"             ,   1,        20.0,        10.0
"Load.s71a"             ,   1,        40.0,        20.0
"Load.s73c"             ,   1,        40.0,        20.0
"Load.s74c"             ,   1,        42.5,        21.2
"Load.s75c"             ,   1,        40.0,        20.0
"Load.s76a"             ,   1,       105.0,        83.9
"Load.s76b"             ,   1,        70.0,        53.3
"Load.s76c"             ,   1,        70.0,        54.4
"Load.s77b"             ,   1,        40.0,        20.0
"Load.s79a"             ,   1,        43.2,        21.6
"Load.s80b"             ,   1,        40.0,        20.0
"Load.s82a"             ,   1,        40.0,        20.0
"Load.s83c"             ,   1,        20.0,        10.0
"Load.s84c"             ,   1,        20.0,        10.0
"Load.s85c"             ,   1,        40.0,        20.0
"Load.s86b"             ,   1,        20.0,        10.0
"Load.s87b"             ,   1,        40.0,        20.0
"Load.s88a"             ,   1,        40.0,        20.0
"Load.s90b"             ,   1,        40.0,        21.1
"Load.s92c"             ,   1,        40.0,        20.0
"Load.s94a"             ,   1,        40.0,        20.0
"Load.s95b"             ,   1,        20.0,        10.0
"Load.s96b"             ,   1,        20.0,        10.0
"Load.s98a"             ,   1,        40.0,        20.0
"Load.s99b"             ,   1,        40.0,        20.0
"Load.s100c"            ,   1,        42.7,        21.4
"Load.s102c"            ,   1,        20.0,        10.0
"Load.s103c"            ,   1,        40.0,        20.0
"Load.s104c"            ,   1,        40.0,        20.0
"Load.s106b"            ,   1,        40.0,        20.0
"Load.s107b"            ,   1,        40.0,        20.0
"Load.s109a"            ,   1,        40.0,        20.0
"Load.s111a"            ,   1,        20.0,        10.0
"Load.s112a"            ,   1,        20.0,        10.5
"Load.s113a"            ,   1,        41.9,        21.0
"Load.s114a"            ,   1,        20.0,        10.0
